[TITLE]


[JUNCTIONS]
;ID              	Elev        	Demand      	Pattern         
 1               	0           	18000       	1               	;
 2               	0           	5000        	1               	;
 3               	0           	15000       	1               	;
 4               	0           	0           	                	;
 9               	0           	0           	                	;
 10              	0           	0           	                	;
 12              	0           	0           	                	;
 13              	0           	0           	                	;
 14              	0           	0           	                	;
 15              	0           	0           	                	;
 16              	0           	0           	                	;
 18              	0           	0           	                	;
 19              	0           	0           	                	;
 20              	0           	0           	                	;
 21              	0           	0           	                	;
 22              	0           	0           	                	;
 23              	0           	0           	                	;
 24              	0           	0           	                	;
 25              	0           	0           	                	;
 26              	0           	0           	                	;
 27              	0           	0           	                	;
 28              	0           	15000       	1               	;
 30              	0           	0           	                	;
 31              	0           	0           	                	;
 32              	0           	0           	                	;
 33              	0           	0           	                	;

[RESERVOIRS]
;ID              	Head        	Pattern         
 11              	20          	                	;
 17              	20          	                	;
 29              	10          	                	;

[TANKS]
;ID              	Elevation   	InitLevel   	MinLevel    	MaxLevel    	Diameter    	MinVol      	VolCurve        	Overflow
 5               	30          	4           	0           	7           	190         	0           	                	;
 6               	80          	4           	0           	7           	95          	0           	                	;
 7               	200         	3           	0           	7           	113         	0           	                	;
 8               	400         	3           	0           	8           	135         	0           	                	;

[PIPES]
;ID              	Node1           	Node2           	Length      	Diameter    	Roughness   	MinorLoss   	Status
 1               	13              	33              	788.08      	2032        	120         	0           	Open  	;
 4               	15              	16              	5000        	2032        	130         	0           	Open  	;
 5               	2               	15              	600.00      	2540        	130         	0           	Open  	;
 6               	12              	15              	900.00      	1600        	120         	0           	Open  	;
 8               	10              	33              	1189.80     	2032        	130         	0           	Open  	;
 9               	1               	26              	838.02      	2032        	120         	0           	Open  	;
 10              	19              	3               	2200.00     	2032        	120         	0           	Open  	;
 11              	3               	25              	1700.00     	1600        	120         	0           	Open  	;
 12              	25              	7               	500.00      	1600        	120         	0           	Open  	;
 13              	25              	9               	1700.00     	1600        	130         	0           	Open  	;
 14              	4               	9               	2600.00     	2540        	130         	0           	Open  	;
 15              	22              	4               	2200.00     	2540        	130         	0           	Open  	;
 16              	2               	20              	1083.76     	2540        	130         	0           	Open  	;
 17              	20              	21              	429.13      	2540        	130         	0           	Open  	;
 18              	20              	5               	624.73      	2540        	130         	0           	Open  	;
 19              	16              	14              	4000        	2032        	120         	0           	Open  	;
 20              	27              	16              	900.00      	1600        	120         	0           	Open  	;
 34              	26              	6               	728.22      	1600        	120         	0           	Open  	;
 35              	9               	23              	300.00      	1600        	120         	0           	Open  	;
 36              	24              	28              	1500.00     	1600        	120         	0           	Open  	;
 37              	28              	8               	700.00      	1600        	120         	0           	Open  	;
 38              	26              	18              	836.41      	1600        	120         	0           	Open  	;
 42              	11              	30              	481.14      	3000        	140         	0           	Open  	;
 43              	17              	31              	50          	3000        	140         	0           	Open  	;
 44              	29              	32              	50          	3000        	140         	0           	Open  	;
 45              	33              	1               	988.38      	2032        	120         	0           	Open  	;

[PUMPS]
;ID              	Node1           	Node2           	Parameters
 2               	18              	19              	HEAD TA	;
 3               	18              	19              	HEAD TA	;
 7               	18              	19              	HEAD TA	;
 21              	21              	22              	HEAD HH	;
 22              	21              	22              	HEAD HH	;
 23              	21              	22              	HEAD HH	;
 25              	23              	24              	HEAD AJ	;
 26              	23              	24              	HEAD AJ	;
 28              	23              	24              	HEAD AJ	;
 29              	23              	24              	HEAD AJ	;
 30              	14              	13              	HEAD WY	;
 31              	14              	13              	HEAD WY	;
 32              	14              	13              	HEAD WY	;
 33              	14              	13              	HEAD WY	;
 D1              	30              	10              	HEAD D1	PATTERN d	;
 D2              	31              	27              	HEAD D2	PATTERN d	;
 D3              	32              	12              	HEAD D3	PATTERN d	;

[VALVES]
;ID              	Node1           	Node2           	Diameter    	Type	Setting     	MinorLoss   

[TAGS]

[DEMANDS]
;Junction        	Demand      	Pattern         	Category

[STATUS]
;ID              	Status/Setting
 31              	Closed
 32              	Closed

[PATTERNS]
;ID              	Multipliers
;
 1               	0.718931958 	0.730593108 	0.635639777 	0.693063236 	0.719587607 	0.773771306 
 1               	0.849738493 	0.983684187 	1.091719193 	1.204786449 	1.308388611 	1.373620863 
 1               	1.384888522 	1.322727225 	1.349118452 	1.22085225  	1.176238233 	1.155023491 
 1               	1.072568666 	1.043850124 	1.05352106  	1.002597706 	0.960268243 	0.948443941 
 1               	0.834918615 	0.753288606 	0.729441409 	0.654972083 	0.690410197 	0.708821506 
 1               	0.801516449 	0.832120182 	1.043468882 	1.05203813  	1.23878802  	1.310659393 
 1               	1.327223127 	1.343770916 	1.345720614 	1.239412793 	1.231463969 	1.198350997 
 1               	1.088812041 	1.120539931 	1.129844846 	1.04269625  	1.076878296 	0.963422549 
 1               	0.831433077 	0.719180127 	0.694194568 	0.603648134 	0.681418756 	0.748055588 
 1               	0.811155494 	0.856938604 	0.936805187 	0.990023242 	1.019742725 	1.09863446  
 1               	1.143681903 	1.185263378 	1.199208429 	1.224540005 	1.150409448 	1.08662751  
 1               	1.057495834 	0.957720589 	0.954085019 	0.889922563 	0.836716106 	0.790896756 
;
 d               	0.8         	0.8         	0.8         	0.8         	0.8         	0.8         
 d               	0.5         	0.3         	0.3         	0.3         	0.3         	0.3         
 d               	0.3         	0.3         	0.3         	0.3         	0.3         	0.3         
 d               	0.3         	0.8         	0.8         	0.8         	0.8         
;
 p1              	1           	1           	1           	1           	1           	1           
 p1              	0           	0           	0           	0           	0           	0           
 p1              	1           	1           	1           	1           	1           	1           
;
 p2              	1           
;
 p3              	1           	1           	1           	0           	0           	0           
 p3              	0           	0           	0           	0           	0           	0           
;
 closed          	0           

[CURVES]
;ID              	X-Value     	Y-Value
;PUMP: 
 WY              	4000        	60          
;PUMP: 
 TA              	5000        	150         
;PUMP: 
 HH              	8500        	200         
;PUMP: 
 AJ              	5000        	400         
;PUMP: 
 D1              	20000       	250         
;PUMP: 
 D2              	24000       	50          
;PUMP: 
 D3              	20000       	60          
;EFFICIENCY: 
 WY-eff          	6000        	66          
 WY-eff          	7000        	78          
 WY-eff          	8000        	82          
 WY-eff          	9000        	80          
 WY-eff          	9500        	76          
;PUMP: 
 HH-eff          	5500        	69          
 HH-eff          	6500        	84          
 HH-eff          	7500        	89          
 HH-eff          	8500        	91          
 HH-eff          	9500        	87          
 HH-eff          	10500       	81          
;PUMP: 
 TA-eff          	2000        	50          
 TA-eff          	3000        	76          
 TA-eff          	4000        	85          
 TA-eff          	5000        	86          
 TA-eff          	6000        	79          
 TA-eff          	7000        	68          
;PUMP: 
 AJ-eff          	2000        	70          
 AJ-eff          	3000        	80          
 AJ-eff          	4000        	87          
 AJ-eff          	5000        	89          
 AJ-eff          	6000        	86          
 AJ-eff          	6500        	80          

[CONTROLS]
;pump 30 open if tank 6 below 1.5
;pump 31 open if tank 6 below 2
;pump 32 open if tank 6 below 2.5
;pump 33 open if tank 6 below 3

;pump 30 closed if tank 6 above 4.5
;pump 31 closed if tank 6 above 5
;pump 32 closed if tank 6 above 5.5
;pump 33 closed if tank 6 above 6
;
;pump 21 open if tank 7 below 1.5
;pump 22 open if tank 7 below 5
;pump 23 open if tank 7 below 2.5

;pump 21 closed if tank 7 above 4.5
;pump 22 closed if tank 7 above 5
;pump 23 closed if tank 7 above 5.5
;
;pump 25 open if tank 8 below 2
;pump 26 open if tank 8 below 2.5
;pump 28 open if tank 8 below 3
;pump 29 open if tank 8 below 3.5

;pump 25 closed if tank 8 above 4.5
;pump 26 closed if tank 8 above 5
;pump 28 closed if tank 8 above 5.5
;pump 29 closed if tank 8 above 6

[RULES]

[ENERGY]
 Global Efficiency  	75
 Global Price       	0
 Demand Charge      	0
 Pump 	2               	Efficiency	TA-eff
 Pump 	3               	Efficiency	TA-eff
 Pump 	7               	Efficiency	TA-eff
 Pump 	21              	Efficiency	HH-eff
 Pump 	22              	Efficiency	HH-eff
 Pump 	23              	Efficiency	HH-eff
 Pump 	25              	Efficiency	AJ-eff
 Pump 	26              	Efficiency	AJ-eff
 Pump 	28              	Efficiency	AJ-eff
 Pump 	29              	Efficiency	AJ-eff
 Pump 	30              	Efficiency	WY-eff
 Pump 	31              	Efficiency	WY-eff
 Pump 	32              	Efficiency	WY-eff
 Pump 	33              	Efficiency	WY-eff

[EMITTERS]
;Junction        	Coefficient

[QUALITY]
;Node            	InitQual

[SOURCES]
;Node            	Type        	Quality     	Pattern

[REACTIONS]
;Type     	Pipe/Tank       	Coefficient


[REACTIONS]
 Order Bulk            	1
 Order Tank            	1
 Order Wall            	1
 Global Bulk           	0
 Global Wall           	0
 Limiting Potential    	0
 Roughness Correlation 	0

[MIXING]
;Tank            	Model

[TIMES]
 Duration           	0
 Hydraulic Timestep 	1:00
 Quality Timestep   	0:05
 Pattern Timestep   	1:00
 Pattern Start      	0:00
 Report Timestep    	1:00
 Report Start       	0:00
 Start ClockTime    	12 am
 Statistic          	None

[REPORT]
 Status             	No
 Summary            	No
 Page               	0

[OPTIONS]
 Units              	CMH
 Headloss           	H-W
 Specific Gravity   	1
 Viscosity          	1
 Trials             	40
 Accuracy           	0.001
 CHECKFREQ          	2
 MAXCHECK           	10
 DAMPLIMIT          	0
 Unbalanced         	Continue 10
 Pattern            	1
 Demand Multiplier  	1.0
 Emitter Exponent   	0.5
 Quality            	None mg/L
 Diffusivity        	1
 Tolerance          	0.01

[COORDINATES]
;Node            	X-Coord           	Y-Coord
1               	1404.421          	7776.333          
2               	1400.000          	2400.000          
3               	6000.000          	8400.000          
4               	6000.000          	2400.000          
9               	6000.000          	5000.000          
10              	500.000           	6000.000          
12              	500.000           	3000.000          
13              	1400.000          	6000.000          
14              	1400.000          	5000.000          
15              	1400.000          	3000.000          
16              	1400.000          	4000.000          
18              	2800.000          	8400.000          
19              	3800.000          	8400.000          
20              	2483.745          	2405.722          
21              	2912.874          	2405.722          
22              	3800.000          	2400.000          
23              	6300.000          	5000.000          
24              	7300.000          	5000.000          
25              	6000.000          	6700.000          
26              	1963.589          	8400.520          
27              	500.000           	4000.000          
28              	8800.000          	5000.000          
30              	-26.008           	5994.798          
31              	-91.027           	4018.205          
32              	-104.031          	2990.897          
33              	1391.417          	6788.036          
11              	-507.152          	5994.798          
17              	-520.156          	4044.213          
29              	-455.137          	2977.893          
5               	2457.737          	3029.909          
6               	1963.589          	9128.739          
7               	6500.000          	6700.000          
8               	9500.000          	5000.000          

[VERTICES]
;Link            	X-Coord           	Y-Coord
2               	3055.917          	8621.586          
2               	3576.073          	8608.583          
7               	3029.909          	8153.446          
7               	3589.077          	8153.446          
22              	3042.913          	2717.815          
22              	3589.077          	2717.815          
23              	3146.944          	2054.616          
23              	3602.081          	2067.620          
26              	6540.962          	5344.603          
26              	7074.122          	5331.599          
28              	6449.935          	4434.330          
28              	7061.118          	4421.326          
29              	6527.958          	4720.416          
29              	6983.095          	4707.412          
30              	1261.378          	5240.572          
30              	1274.382          	5721.717          
31              	1586.476          	5214.564          
31              	1547.464          	5747.724          
32              	1768.531          	5162.549          
32              	1781.534          	5812.744          
33              	1066.320          	5188.557          
33              	1066.320          	5721.717          

[LABELS]
;X-Coord             Y-Coord             Label & Anchor Node

[BACKDROP]
  DIMENSIONS  	0.000             	0.000             	10000.000         	10000.000         
 UNITS          	None
 FILE           	
 OFFSET         	0.00            	0.00            

[END]
